Circuit: * Z:\home\joseph\projects\weather-station\hardware\ltspice\Draft4.asc


Date: Wed Mar 02 16:47:07 2022
Total elapsed time: 0.141 seconds.

tnom = 27
temp = 27
method = trap
totiter = 0
traniter = 0
tranpoints = 0
accept = 0
rejected = 0
matrix size = 7
fillins = 1
solver = Normal

