Circuit: * Z:\home\joseph\projects\weather-station\hardware\ltspice\Draft1.asc

WARNING: Node NC_03 is floating.
WARNING: Node NC_04 is floating.
WARNING: Node NC_05 is floating.
WARNING: Node NC_07 is floating.
WARNING: Node N004 is floating.

WARNING: Less than two connections to node NC_02.  This node is used by L:X1:2.
WARNING: Less than two connections to node NC_03.  This node is used by C9.
WARNING: Less than two connections to node NC_04.  This node is used by C9.
WARNING: Less than two connections to node NC_05.  This node is used by C11.
WARNING: Less than two connections to node NC_06.  This node is used by L21.
WARNING: Less than two connections to node NC_07.  This node is used by L21.
WARNING: Less than two connections to node TEST.  This node is used by V2.
Direct Newton iteration for .op point succeeded.

req9: AVG((v(q1b)-v(q1e))/ic(q9))=38.2886 FROM 0 TO 2.5e-006

Measurement "req11" FAIL'ed

Measurement "req12" FAIL'ed


Date: Tue Mar 01 12:17:59 2022
Total elapsed time: 6.491 seconds.

tnom = 27
temp = 27
method = modified trap
totiter = 168675
traniter = 168667
tranpoints = 72793
accept = 65699
rejected = 7094
matrix size = 84
fillins = 75
solver = Normal
Thread vector: 21.6/16.1[3] 11.4/7.9[3] 2.9/5.1[1] 2.0/3.6[1]  2592/500
Matrix Compiler1: 9.69 KB object code size  7.3/4.4/[2.6]
Matrix Compiler2: 7.85 KB object code size  3.6/4.3/[2.2]

