Circuit: * Y:\git\weather-station\ltspice\mixer.asc

Direct Newton iteration for .op point succeeded.

Date: Fri Oct 22 21:05:55 2021
Total elapsed time: 0.147 seconds.

tnom = 27
temp = 27
method = modified trap
totiter = 24640
traniter = 24635
tranpoints = 7751
accept = 5126
rejected = 2625
matrix size = 25
fillins = 24
solver = Normal
Matrix Compiler1: 3.63 KB object code size  0.8/0.5/[0.3]
Matrix Compiler2: 2.66 KB object code size  0.4/0.4/[0.4]

