Circuit: * Z:\home\joseph\projects\weather-station\hardware\ltspice\update_03012022.asc

WARNING: Node NC_03 is floating.

WARNING: Less than two connections to node NC_02.  This node is used by L15.
WARNING: Less than two connections to node NC_03.  This node is used by L15.
WARNING: Less than two connections to node TEST.  This node is used by V2.
Direct Newton iteration for .op point succeeded.

req9: AVG((v(q1b)-v(q1e))/ic(q9))=38.8688 FROM 0 TO 2.5e-006

Measurement "req11" FAIL'ed

Measurement "req12" FAIL'ed


Date: Sun Jun 05 09:52:50 2022
Total elapsed time: 15.761 seconds.

tnom = 27
temp = 27
method = modified trap
totiter = 278557
traniter = 278549
tranpoints = 103934
accept = 83000
rejected = 20934
matrix size = 81
fillins = 47
solver = Normal
Thread vector: 7.8/5.4[4] 7.3/4.7[4] 1.2/2.3[1] 0.5/2.4[1]  2592/500
Matrix Compiler1: 7.42 KB object code size  3.1/1.8/[0.8]
Matrix Compiler2: 7.22 KB object code size  1.4/2.1/[0.7]

